Version 4
SHEET 1 904 680
WIRE 144 128 96 128
WIRE 240 128 208 128
WIRE 352 128 320 128
WIRE 384 128 352 128
WIRE 528 128 464 128
WIRE 352 176 352 128
WIRE 528 176 528 128
WIRE 352 192 352 176
WIRE 16 256 16 128
WIRE 64 256 16 256
WIRE 352 256 352 240
WIRE 352 256 64 256
WIRE 528 256 352 256
FLAG 64 256 0
SYMBOL res 112 112 R90
WINDOW 0 0 56 VBottom 2
WINDOW 3 32 56 VTop 2
SYMATTR InstName R1
SYMATTR Value 5
SYMBOL cap 208 112 R90
WINDOW 0 0 32 VBottom 2
WINDOW 3 32 32 VTop 2
SYMATTR InstName C1
SYMATTR Value 1
SYMBOL cap 368 240 R180
WINDOW 0 24 56 Left 2
WINDOW 3 24 8 Left 2
SYMATTR InstName C2
SYMATTR Value {1/3}
SYMBOL ind 224 144 R270
WINDOW 0 32 56 VTop 2
WINDOW 3 5 56 VBottom 2
SYMATTR InstName L1
SYMATTR Value 2
SYMATTR SpiceLine Rser=0
SYMBOL ind 368 144 R270
WINDOW 0 32 56 VTop 2
WINDOW 3 5 56 VBottom 2
SYMATTR InstName L2
SYMATTR Value 1
SYMATTR SpiceLine Rser=0
SYMBOL voltage 528 160 R0
WINDOW 123 0 0 Left 0
WINDOW 39 0 0 Left 0
SYMATTR InstName V1
SYMATTR Value PULSE(0 1 0 1n 1n 100 100 1)
TEXT 560 296 Left 2 !.tran 100
