Version 4
SHEET 1 880 680
WIRE 144 80 80 80
WIRE 288 80 224 80
WIRE 400 80 368 80
WIRE 432 80 400 80
WIRE 544 80 496 80
WIRE 80 144 80 80
WIRE 80 256 80 224
WIRE 544 256 544 80
FLAG 80 256 0
FLAG 544 256 0
FLAG 400 80 q
SYMBOL voltage 80 128 R0
WINDOW 123 24 124 Left 2
WINDOW 39 0 0 Left 0
SYMATTR Value2 AC 1
SYMATTR InstName V1
SYMATTR Value ""
SYMBOL res 240 64 R90
WINDOW 0 0 56 VBottom 2
WINDOW 3 32 56 VTop 2
SYMATTR InstName R1
SYMATTR Value {c}
SYMBOL ind 384 64 R90
WINDOW 0 5 56 VBottom 2
WINDOW 3 32 56 VTop 2
SYMATTR InstName L1
SYMATTR Value {m}
SYMBOL cap 496 64 R90
WINDOW 0 0 32 VBottom 2
WINDOW 3 32 32 VTop 2
SYMATTR InstName C1
SYMATTR Value {1/k}
TEXT 64 448 Left 2 !.param c=2*zeta*sqrt(k*m)
TEXT 64 352 Left 2 !.param m = 0.1
TEXT 64 416 Left 2 !.param k = 100
TEXT 64 384 Left 2 !.param zeta=0.01
TEXT 472 344 Left 2 !.ac dec 1000 0.1 100
TEXT 64 320 Left 2 ;Parameters
TEXT 464 312 Left 2 ;Simulation command
TEXT 464 400 Left 2 !.step param zeta list 0.1 1 1.5
TEXT 464 376 Left 2 ;Parameter sweep
