Version 4
SHEET 1 940 680
WIRE 176 112 80 112
WIRE 304 112 256 112
WIRE 688 112 592 112
WIRE 816 112 768 112
WIRE 80 224 80 192
WIRE 192 224 80 224
WIRE 304 224 304 176
WIRE 304 224 192 224
WIRE 592 224 592 192
WIRE 704 224 592 224
WIRE 816 224 816 176
WIRE 816 224 704 224
FLAG 192 224 0
FLAG 704 224 0
SYMBOL res 272 96 R90
WINDOW 0 0 56 VBottom 2
WINDOW 3 32 56 VTop 2
SYMATTR InstName R2
SYMATTR Value 0.02
SYMBOL cap 288 112 R0
SYMATTR InstName C1
SYMATTR Value 1.05
SYMBOL res 784 96 R90
WINDOW 0 0 56 VBottom 2
WINDOW 3 32 56 VTop 2
SYMATTR InstName R1
SYMATTR Value 0.04
SYMBOL cap 800 112 R0
SYMATTR InstName C2
SYMATTR Value 2.1
SYMBOL voltage 592 96 R0
WINDOW 0 -17 -7 Left 2
WINDOW 3 -142 101 Left 2
WINDOW 123 0 0 Left 0
WINDOW 39 0 0 Left 0
SYMATTR InstName V2
SYMATTR Value PULSE(0 1 0 0 0 100 100 1)
SYMBOL voltage 80 96 R0
WINDOW 0 -17 -7 Left 2
WINDOW 3 -193 98 Left 2
WINDOW 123 0 0 Left 0
WINDOW 39 0 0 Left 0
SYMATTR InstName V1
SYMATTR Value PULSE(0 1 0 0 0 100 100 1)
TEXT 48 248 Left 2 !.tran 0 0.5 0 0.05
